MODEL 1
REMARK VINA RESULT:      -9.5      0.000      0.000
REMARK  8 active torsions:
REMARK  status: ('A' for Active; 'I' for Inactive)
REMARK    1  A    between atoms: C_1  and  C_6 
REMARK    2  A    between atoms: C_1  and  C_2 
REMARK    3  A    between atoms: Cl_3  and  C_4 
REMARK    4  A    between atoms: C_5  and  C_6 
REMARK    5  A    between atoms: C_8  and  N_22 
REMARK    6  A    between atoms: C_14  and  C_25 
REMARK       I    between atoms: C_25  and  N_26 
REMARK    7  A    between atoms: C_27  and  C_33 
REMARK    8  A    between atoms: C_30  and  O_35 
ROOT
ATOM      1  C   *** d   1       7.121  42.436   7.186  0.00  0.00     0.000 C 
ATOM      2  C   *** d   1       7.945  42.445   8.466  0.00  0.00     0.000 C 
ATOM      3  C   *** d   1       7.969  41.927   6.010  0.00  0.00     0.000 C 
ATOM      4  C   *** d   1       9.204  41.386   6.289  0.00  0.00     0.000 C 
ATOM      5  C   *** d   1       9.853  41.919   7.360  0.00  0.00     0.000 C 
ATOM      6  O   *** d   1       9.221  42.885   8.100  0.00  0.00     0.000 OA
ATOM      7  C   *** d   1      11.061  41.431   7.759  0.00  0.00     0.000 A 
ATOM      8  C   *** d   1      11.645  41.866   8.895  0.00  0.00     0.000 A 
ATOM      9  C   *** d   1      12.822  41.390   9.329  0.00  0.00     0.000 A 
ATOM     10  C   *** d   1      13.494  40.442   8.649  0.00  0.00     0.000 A 
ATOM     11  C   *** d   1      12.954  40.034   7.484  0.00  0.00     0.000 A 
ATOM     12  C   *** d   1      11.780  40.530   7.061  0.00  0.00     0.000 A 
ATOM     13  F   *** d   1      13.581  39.185   6.685  0.00  0.00     0.000 F 
ATOM     14  O   *** d   1       7.518  41.928   4.880  0.00  0.00     0.000 OA
ENDROOT
BRANCH   4  15
ATOM     15  N   *** d   1       9.143  40.125   6.375  0.00  0.00     1.000 N 
ATOM     16  O   *** d   1       9.481  39.338   5.385  0.00  0.00     0.000 OA
ATOM     17  O   *** d   1       8.076  39.667   7.014  0.00  0.00    -1.000 OA
ENDBRANCH   4  15
BRANCH   2  18
ATOM     18  C   *** d   1       8.078  41.144   9.328  0.00  0.00     0.000 C 
BRANCH  18  19
ATOM     19  C   *** d   1       7.446  40.951  10.770  0.00  0.00     0.000 C 
ATOM     20 Cl   *** d   1       8.384  42.085  11.702  0.00  0.00     0.000 Cl
BRANCH  19  21
ATOM     21  C   *** d   1       5.949  41.271  11.027  0.00  0.00     0.000 C 
ATOM     22 Cl   *** d   1       4.755  40.046  10.554  0.00  0.00     0.000 Cl
ENDBRANCH  19  21
ENDBRANCH  18  19
ENDBRANCH   2  18
BRANCH  10  23
ATOM     23  C   *** d   1      14.678  39.961   9.132  0.00  0.00     0.000 C 
ATOM     24  O   *** d   1      15.711  40.582   9.015  0.00  0.00     0.000 OA
ATOM     25  N   *** d   1      14.655  38.806   9.886  0.00  0.00     0.000 N 
ATOM     26  C   *** d   1      15.876  38.030  10.120  0.00  0.00     0.000 C 
ATOM     27  N   *** d   1      13.657  38.471  10.741  0.00  0.00     0.000 NA
ATOM     28  C   *** d   1      15.251  36.706  10.594  0.00  0.00     0.000 C 
ATOM     29  C   *** d   1      14.038  37.211  11.371  0.00  0.00     0.000 C 
ATOM     30  H   *** d   1      12.766  38.335  10.237  0.00  0.00     0.000 HD
BRANCH  26  31
ATOM     31  C   *** d   1      16.811  38.633  11.189  0.00  0.00     0.000 C 
ATOM     32  C   *** d   1      18.242  38.851  10.676  0.00  0.00     0.000 C 
ENDBRANCH  26  31
BRANCH  29  33
ATOM     33  O   *** d   1      12.961  36.305  11.285  0.00  0.00     0.000 OA
ATOM     34  H   *** d   1      12.174  36.766  11.584  0.00  0.00     0.000 HD
ENDBRANCH  29  33
ENDBRANCH  10  23
BRANCH   1  35
ATOM     35 Cl   *** d   1       5.927  41.218   7.425  0.00  0.00     0.000 Cl
ATOM     36  H   *** d   1       5.490  40.514   6.431  0.00  0.00     0.000 HD
ENDBRANCH   1  35
TORSDOF 8
ENDMDL
MODEL 2
REMARK VINA RESULT:      -9.4      3.619      8.187
REMARK  8 active torsions:
REMARK  status: ('A' for Active; 'I' for Inactive)
REMARK    1  A    between atoms: C_1  and  C_6 
REMARK    2  A    between atoms: C_1  and  C_2 
REMARK    3  A    between atoms: Cl_3  and  C_4 
REMARK    4  A    between atoms: C_5  and  C_6 
REMARK    5  A    between atoms: C_8  and  N_22 
REMARK    6  A    between atoms: C_14  and  C_25 
REMARK       I    between atoms: C_25  and  N_26 
REMARK    7  A    between atoms: C_27  and  C_33 
REMARK    8  A    between atoms: C_30  and  O_35 
ROOT
ATOM      1  C   *** d   1      16.860  37.705  10.755  0.00  0.00     0.000 C 
ATOM      2  C   *** d   1      16.443  39.135  10.438  0.00  0.00     0.000 C 
ATOM      3  C   *** d   1      15.667  36.752  10.583  0.00  0.00     0.000 C 
ATOM      4  C   *** d   1      14.521  37.248  10.004  0.00  0.00     0.000 C 
ATOM      5  C   *** d   1      14.258  38.562  10.245  0.00  0.00     0.000 C 
ATOM      6  O   *** d   1      15.162  39.291  10.975  0.00  0.00     0.000 OA
ATOM      7  C   *** d   1      13.178  39.174   9.685  0.00  0.00     0.000 A 
ATOM      8  C   *** d   1      12.987  40.503   9.814  0.00  0.00     0.000 A 
ATOM      9  C   *** d   1      11.946  41.140   9.256  0.00  0.00     0.000 A 
ATOM     10  C   *** d   1      11.024  40.483   8.529  0.00  0.00     0.000 A 
ATOM     11  C   *** d   1      11.166  39.147   8.434  0.00  0.00     0.000 A 
ATOM     12  C   *** d   1      12.208  38.525   9.008  0.00  0.00     0.000 A 
ATOM     13  F   *** d   1      10.260  38.390   7.833  0.00  0.00     0.000 F 
ATOM     14  O   *** d   1      15.772  35.576  10.875  0.00  0.00     0.000 OA
ENDROOT
BRANCH   4  15
ATOM     15  N   *** d   1      14.489  36.998   8.763  0.00  0.00     1.000 N 
ATOM     16  O   *** d   1      13.817  35.989   8.270  0.00  0.00     0.000 OA
ATOM     17  O   *** d   1      15.645  37.162   8.138  0.00  0.00    -1.000 OA
ENDBRANCH   4  15
BRANCH   2  18
ATOM     18  C   *** d   1      16.446  39.648   8.957  0.00  0.00     0.000 C 
BRANCH  18  19
ATOM     19  C   *** d   1      16.532  41.175   8.535  0.00  0.00     0.000 C 
ATOM     20 Cl   *** d   1      18.257  41.395   8.426  0.00  0.00     0.000 Cl
BRANCH  19  21
ATOM     21  C   *** d   1      15.921  41.661   7.193  0.00  0.00     0.000 C 
ATOM     22 Cl   *** d   1      14.415  40.893   6.653  0.00  0.00     0.000 Cl
ENDBRANCH  19  21
ENDBRANCH  18  19
ENDBRANCH   2  18
BRANCH  10  23
ATOM     23  C   *** d   1       9.990  41.167   7.954  0.00  0.00     0.000 C 
ATOM     24  O   *** d   1      10.013  41.490   6.787  0.00  0.00     0.000 OA
ATOM     25  N   *** d   1       8.845  41.367   8.698  0.00  0.00     0.000 N 
ATOM     26  C   *** d   1       7.862  42.385   8.315  0.00  0.00     0.000 C 
ATOM     27  N   *** d   1       8.347  40.474   9.588  0.00  0.00     0.000 NA
ATOM     28  C   *** d   1       7.077  42.491   9.634  0.00  0.00     0.000 C 
ATOM     29  C   *** d   1       7.111  41.042  10.117  0.00  0.00     0.000 C 
ATOM     30  H   *** d   1       9.004  40.323  10.370  0.00  0.00     0.000 HD
BRANCH  26  31
ATOM     31  C   *** d   1       6.950  41.970   7.141  0.00  0.00     0.000 C 
ATOM     32  C   *** d   1       7.082  42.899   5.926  0.00  0.00     0.000 C 
ENDBRANCH  26  31
BRANCH  29  33
ATOM     33  O   *** d   1       7.134  40.974  11.526  0.00  0.00     0.000 OA
ATOM     34  H   *** d   1       6.229  40.850  11.821  0.00  0.00     0.000 HD
ENDBRANCH  29  33
ENDBRANCH  10  23
BRANCH   1  35
ATOM     35 Cl   *** d   1      17.956  37.265   9.501  0.00  0.00     0.000 Cl
ATOM     36  H   *** d   1      17.520  36.843   8.358  0.00  0.00     0.000 HD
ENDBRANCH   1  35
TORSDOF 8
ENDMDL
MODEL 3
REMARK VINA RESULT:      -9.4      3.311      8.105
REMARK  8 active torsions:
REMARK  status: ('A' for Active; 'I' for Inactive)
REMARK    1  A    between atoms: C_1  and  C_6 
REMARK    2  A    between atoms: C_1  and  C_2 
REMARK    3  A    between atoms: Cl_3  and  C_4 
REMARK    4  A    between atoms: C_5  and  C_6 
REMARK    5  A    between atoms: C_8  and  N_22 
REMARK    6  A    between atoms: C_14  and  C_25 
REMARK       I    between atoms: C_25  and  N_26 
REMARK    7  A    between atoms: C_27  and  C_33 
REMARK    8  A    between atoms: C_30  and  O_35 
ROOT
ATOM      1  C   *** d   1      15.857  38.345   9.764  0.00  0.00     0.000 C 
ATOM      2  C   *** d   1      15.403  39.601   9.032  0.00  0.00     0.000 C 
ATOM      3  C   *** d   1      14.772  37.882  10.749  0.00  0.00     0.000 C 
ATOM      4  C   *** d   1      13.541  38.495  10.692  0.00  0.00     0.000 C 
ATOM      5  C   *** d   1      13.549  39.805  10.323  0.00  0.00     0.000 C 
ATOM      6  O   *** d   1      14.745  40.386   9.985  0.00  0.00     0.000 OA
ATOM      7  C   *** d   1      12.387  40.501  10.184  0.00  0.00     0.000 A 
ATOM      8  C   *** d   1      12.383  41.758   9.693  0.00  0.00     0.000 A 
ATOM      9  C   *** d   1      11.254  42.462   9.523  0.00  0.00     0.000 A 
ATOM     10  C   *** d   1      10.049  41.951   9.837  0.00  0.00     0.000 A 
ATOM     11  C   *** d   1      10.036  40.718  10.379  0.00  0.00     0.000 A 
ATOM     12  C   *** d   1      11.178  40.032  10.552  0.00  0.00     0.000 A 
ATOM     13  F   *** d   1       8.918  40.162  10.820  0.00  0.00     0.000 F 
ATOM     14  O   *** d   1      14.979  36.944  11.496  0.00  0.00     0.000 OA
ENDROOT
BRANCH   4  15
ATOM     15  N   *** d   1      12.731  37.829   9.983  0.00  0.00     1.000 N 
ATOM     16  O   *** d   1      11.986  36.874  10.482  0.00  0.00     0.000 OA
ATOM     17  O   *** d   1      13.183  37.510   8.780  0.00  0.00    -1.000 OA
ENDBRANCH   4  15
BRANCH   2  18
ATOM     18  C   *** d   1      14.507  39.489   7.752  0.00  0.00     0.000 C 
BRANCH  18  19
ATOM     19  C   *** d   1      14.351  40.628   6.660  0.00  0.00     0.000 C 
ATOM     20 Cl   *** d   1      12.634  40.585   6.373  0.00  0.00     0.000 Cl
BRANCH  19  21
ATOM     21  C   *** d   1      14.725  42.098   6.990  0.00  0.00     0.000 C 
ATOM     22 Cl   *** d   1      16.449  42.516   7.028  0.00  0.00     0.000 Cl
ENDBRANCH  19  21
ENDBRANCH  18  19
ENDBRANCH   2  18
BRANCH  10  23
ATOM     23  C   *** d   1       8.917  42.687   9.627  0.00  0.00     0.000 C 
ATOM     24  O   *** d   1       8.771  43.783  10.119  0.00  0.00     0.000 OA
ATOM     25  N   *** d   1       7.988  42.212   8.724  0.00  0.00     0.000 N 
ATOM     26  C   *** d   1       6.613  42.720   8.714  0.00  0.00     0.000 C 
ATOM     27  N   *** d   1       8.301  41.544   7.586  0.00  0.00     0.000 NA
ATOM     28  C   *** d   1       5.937  41.614   7.885  0.00  0.00     0.000 C 
ATOM     29  C   *** d   1       7.046  41.266   6.894  0.00  0.00     0.000 C 
ATOM     30  H   *** d   1       8.768  40.647   7.798  0.00  0.00     0.000 HD
BRANCH  26  31
ATOM     31  C   *** d   1       6.457  44.105   8.051  0.00  0.00     0.000 C 
ATOM     32  C   *** d   1       5.057  44.330   7.462  0.00  0.00     0.000 C 
ENDBRANCH  26  31
BRANCH  29  33
ATOM     33  O   *** d   1       7.004  39.902   6.538  0.00  0.00     0.000 OA
ATOM     34  H   *** d   1       6.801  39.405   7.333  0.00  0.00     0.000 HD
ENDBRANCH  29  33
ENDBRANCH  10  23
BRANCH   1  35
ATOM     35 Cl   *** d   1      15.909  37.114   8.561  0.00  0.00     0.000 Cl
ATOM     36  H   *** d   1      16.947  36.353   8.435  0.00  0.00     0.000 HD
ENDBRANCH   1  35
TORSDOF 8
ENDMDL
MODEL 4
REMARK VINA RESULT:      -9.2      2.603      4.264
REMARK  8 active torsions:
REMARK  status: ('A' for Active; 'I' for Inactive)
REMARK    1  A    between atoms: C_1  and  C_6 
REMARK    2  A    between atoms: C_1  and  C_2 
REMARK    3  A    between atoms: Cl_3  and  C_4 
REMARK    4  A    between atoms: C_5  and  C_6 
REMARK    5  A    between atoms: C_8  and  N_22 
REMARK    6  A    between atoms: C_14  and  C_25 
REMARK       I    between atoms: C_25  and  N_26 
REMARK    7  A    between atoms: C_27  and  C_33 
REMARK    8  A    between atoms: C_30  and  O_35 
ROOT
ATOM      1  C   *** d   1       7.349  41.533   6.213  0.00  0.00     0.000 C 
ATOM      2  C   *** d   1       8.421  40.528   5.816  0.00  0.00     0.000 C 
ATOM      3  C   *** d   1       7.419  41.817   7.722  0.00  0.00     0.000 C 
ATOM      4  C   *** d   1       8.495  41.324   8.424  0.00  0.00     0.000 C 
ATOM      5  C   *** d   1       9.005  40.145   7.973  0.00  0.00     0.000 C 
ATOM      6  O   *** d   1       8.464  39.582   6.845  0.00  0.00     0.000 OA
ATOM      7  C   *** d   1      10.100  39.586   8.559  0.00  0.00     0.000 A 
ATOM      8  C   *** d   1      10.686  38.489   8.034  0.00  0.00     0.000 A 
ATOM      9  C   *** d   1      11.779  37.927   8.574  0.00  0.00     0.000 A 
ATOM     10  C   *** d   1      12.357  38.430   9.681  0.00  0.00     0.000 A 
ATOM     11  C   *** d   1      11.756  39.491  10.251  0.00  0.00     0.000 A 
ATOM     12  C   *** d   1      10.657  40.034   9.702  0.00  0.00     0.000 A 
ATOM     13  F   *** d   1      12.179  40.000  11.398  0.00  0.00     0.000 F 
ATOM     14  O   *** d   1       6.588  42.528   8.253  0.00  0.00     0.000 OA
ENDROOT
BRANCH   4  15
ATOM     15  N   *** d   1       9.405  42.197   8.542  0.00  0.00     1.000 N 
ATOM     16  O   *** d   1       9.601  42.857   9.656  0.00  0.00     0.000 OA
ATOM     17  O   *** d   1       9.560  42.977   7.483  0.00  0.00    -1.000 OA
ENDBRANCH   4  15
BRANCH   2  18
ATOM     18  C   *** d   1       9.878  41.010   5.500  0.00  0.00     0.000 C 
BRANCH  18  19
ATOM     19  C   *** d   1      10.793  40.416   4.347  0.00  0.00     0.000 C 
ATOM     20 Cl   *** d   1      12.272  40.113   5.216  0.00  0.00     0.000 Cl
BRANCH  19  21
ATOM     21  C   *** d   1      10.404  39.096   3.629  0.00  0.00     0.000 C 
ATOM     22 Cl   *** d   1      10.404  37.607   4.594  0.00  0.00     0.000 Cl
ENDBRANCH  19  21
ENDBRANCH  18  19
ENDBRANCH   2  18
BRANCH  10  23
ATOM     23  C   *** d   1      13.484  37.848  10.189  0.00  0.00     0.000 C 
ATOM     24  O   *** d   1      13.442  36.793  10.782  0.00  0.00     0.000 OA
ATOM     25  N   *** d   1      14.705  38.420   9.895  0.00  0.00     0.000 N 
ATOM     26  C   *** d   1      15.900  38.100  10.681  0.00  0.00     0.000 C 
ATOM     27  N   *** d   1      15.005  39.012   8.712  0.00  0.00     0.000 NA
ATOM     28  C   *** d   1      16.808  39.266  10.251  0.00  0.00     0.000 C 
ATOM     29  C   *** d   1      16.399  39.438   8.790  0.00  0.00     0.000 C 
ATOM     30  H   *** d   1      14.413  39.843   8.552  0.00  0.00     0.000 HD
BRANCH  26  31
ATOM     31  C   *** d   1      16.531  36.733  10.342  0.00  0.00     0.000 C 
ATOM     32  C   *** d   1      16.745  35.852  11.581  0.00  0.00     0.000 C 
ENDBRANCH  26  31
BRANCH  29  33
ATOM     33  O   *** d   1      16.496  40.786   8.386  0.00  0.00     0.000 OA
ATOM     34  H   *** d   1      15.602  41.121   8.289  0.00  0.00     0.000 HD
ENDBRANCH  29  33
ENDBRANCH  10  23
BRANCH   1  35
ATOM     35 Cl   *** d   1       7.819  43.013   5.468  0.00  0.00     0.000 Cl
ATOM     36  H   *** d   1       7.554  43.241   4.221  0.00  0.00     0.000 HD
ENDBRANCH   1  35
TORSDOF 8
ENDMDL
MODEL 5
REMARK VINA RESULT:      -9.1      2.431      3.865
REMARK  8 active torsions:
REMARK  status: ('A' for Active; 'I' for Inactive)
REMARK    1  A    between atoms: C_1  and  C_6 
REMARK    2  A    between atoms: C_1  and  C_2 
REMARK    3  A    between atoms: Cl_3  and  C_4 
REMARK    4  A    between atoms: C_5  and  C_6 
REMARK    5  A    between atoms: C_8  and  N_22 
REMARK    6  A    between atoms: C_14  and  C_25 
REMARK       I    between atoms: C_25  and  N_26 
REMARK    7  A    between atoms: C_27  and  C_33 
REMARK    8  A    between atoms: C_30  and  O_35 
ROOT
ATOM      1  C   *** d   1       7.458  40.446   6.631  0.00  0.00     0.000 C 
ATOM      2  C   *** d   1       8.748  40.000   5.956  0.00  0.00     0.000 C 
ATOM      3  C   *** d   1       7.686  40.645   8.137  0.00  0.00     0.000 C 
ATOM      4  C   *** d   1       8.979  40.602   8.607  0.00  0.00     0.000 C 
ATOM      5  C   *** d   1       9.824  39.770   7.939  0.00  0.00     0.000 C 
ATOM      6  O   *** d   1       9.353  39.100   6.839  0.00  0.00     0.000 OA
ATOM      7  C   *** d   1      11.138  39.682   8.284  0.00  0.00     0.000 A 
ATOM      8  C   *** d   1      12.004  38.959   7.543  0.00  0.00     0.000 A 
ATOM      9  C   *** d   1      13.310  38.870   7.843  0.00  0.00     0.000 A 
ATOM     10  C   *** d   1      13.834  39.503   8.909  0.00  0.00     0.000 A 
ATOM     11  C   *** d   1      12.976  40.184   9.692  0.00  0.00     0.000 A 
ATOM     12  C   *** d   1      11.671  40.253   9.383  0.00  0.00     0.000 A 
ATOM     13  F   *** d   1      13.365  40.755  10.822  0.00  0.00     0.000 F 
ATOM     14  O   *** d   1       6.754  40.915   8.870  0.00  0.00     0.000 OA
ENDROOT
BRANCH   4  15
ATOM     15  N   *** d   1       9.470  41.765   8.704  0.00  0.00     1.000 N 
ATOM     16  O   *** d   1       9.484  42.427   9.833  0.00  0.00     0.000 OA
ATOM     17  O   *** d   1       9.205  42.562   7.679  0.00  0.00    -1.000 OA
ENDBRANCH   4  15
BRANCH   2  18
ATOM     18  C   *** d   1       9.807  41.060   5.498  0.00  0.00     0.000 C 
BRANCH  18  19
ATOM     19  C   *** d   1      10.949  40.788   4.431  0.00  0.00     0.000 C 
ATOM     20 Cl   *** d   1      12.355  41.341   5.298  0.00  0.00     0.000 Cl
BRANCH  19  21
ATOM     21  C   *** d   1      11.248  39.346   3.942  0.00  0.00     0.000 C 
ATOM     22 Cl   *** d   1      10.101  38.612   2.804  0.00  0.00     0.000 Cl
ENDBRANCH  19  21
ENDBRANCH  18  19
ENDBRANCH   2  18
BRANCH  10  23
ATOM     23  C   *** d   1      15.172  39.411   9.170  0.00  0.00     0.000 C 
ATOM     24  O   *** d   1      15.937  40.304   8.884  0.00  0.00     0.000 OA
ATOM     25  N   *** d   1      15.623  38.329   9.898  0.00  0.00     0.000 N 
ATOM     26  C   *** d   1      17.041  37.957   9.902  0.00  0.00     0.000 C 
ATOM     27  N   *** d   1      14.932  37.746  10.908  0.00  0.00     0.000 NA
ATOM     28  C   *** d   1      16.929  36.526  10.456  0.00  0.00     0.000 C 
ATOM     29  C   *** d   1      15.772  36.679  11.442  0.00  0.00     0.000 C 
ATOM     30  H   *** d   1      14.049  37.334  10.566  0.00  0.00     0.000 HD
BRANCH  26  31
ATOM     31  C   *** d   1      17.924  38.849  10.801  0.00  0.00     0.000 C 
ATOM     32  C   *** d   1      19.251  39.239  10.135  0.00  0.00     0.000 C 
ENDBRANCH  26  31
BRANCH  29  33
ATOM     33  O   *** d   1      15.016  35.492  11.530  0.00  0.00     0.000 OA
ATOM     34  H   *** d   1      15.245  35.068  12.360  0.00  0.00     0.000 HD
ENDBRANCH  29  33
ENDBRANCH  10  23
BRANCH   1  35
ATOM     35 Cl   *** d   1       7.152  42.027   6.021  0.00  0.00     0.000 Cl
ATOM     36  H   *** d   1       8.123  42.858   5.817  0.00  0.00     0.000 HD
ENDBRANCH   1  35
TORSDOF 8
ENDMDL
MODEL 6
REMARK VINA RESULT:      -8.8      3.058      4.975
REMARK  8 active torsions:
REMARK  status: ('A' for Active; 'I' for Inactive)
REMARK    1  A    between atoms: C_1  and  C_6 
REMARK    2  A    between atoms: C_1  and  C_2 
REMARK    3  A    between atoms: Cl_3  and  C_4 
REMARK    4  A    between atoms: C_5  and  C_6 
REMARK    5  A    between atoms: C_8  and  N_22 
REMARK    6  A    between atoms: C_14  and  C_25 
REMARK       I    between atoms: C_25  and  N_26 
REMARK    7  A    between atoms: C_27  and  C_33 
REMARK    8  A    between atoms: C_30  and  O_35 
ROOT
ATOM      1  C   *** d   1       9.013  41.103   8.362  0.00  0.00     0.000 C 
ATOM      2  C   *** d   1      10.134  40.530   7.505  0.00  0.00     0.000 C 
ATOM      3  C   *** d   1       9.228  40.734   9.837  0.00  0.00     0.000 C 
ATOM      4  C   *** d   1      10.426  40.157  10.192  0.00  0.00     0.000 C 
ATOM      5  C   *** d   1      11.005  39.367   9.247  0.00  0.00     0.000 C 
ATOM      6  O   *** d   1      10.400  39.257   8.021  0.00  0.00     0.000 OA
ATOM      7  C   *** d   1      12.215  38.783   9.468  0.00  0.00     0.000 A 
ATOM      8  C   *** d   1      12.851  38.109   8.487  0.00  0.00     0.000 A 
ATOM      9  C   *** d   1      14.055  37.541   8.665  0.00  0.00     0.000 A 
ATOM     10  C   *** d   1      14.701  37.612   9.843  0.00  0.00     0.000 A 
ATOM     11  C   *** d   1      14.059  38.233  10.851  0.00  0.00     0.000 A 
ATOM     12  C   *** d   1      12.850  38.786  10.657  0.00  0.00     0.000 A 
ATOM     13  F   *** d   1      14.556  38.269  12.078  0.00  0.00     0.000 F 
ATOM     14  O   *** d   1       8.392  41.024  10.672  0.00  0.00     0.000 OA
ENDROOT
BRANCH   4  15
ATOM     15  N   *** d   1      11.243  41.024  10.622  0.00  0.00     1.000 N 
ATOM     16  O   *** d   1      11.557  41.122  11.889  0.00  0.00     0.000 OA
ATOM     17  O   *** d   1      11.127  42.217  10.058  0.00  0.00    -1.000 OA
ENDBRANCH   4  15
BRANCH   2  18
ATOM     18  C   *** d   1      11.483  41.310   7.343  0.00  0.00     0.000 C 
BRANCH  18  19
ATOM     19  C   *** d   1      12.463  41.165   6.105  0.00  0.00     0.000 C 
ATOM     20 Cl   *** d   1      14.008  41.099   6.906  0.00  0.00     0.000 Cl
BRANCH  19  21
ATOM     21  C   *** d   1      12.378  39.931   5.167  0.00  0.00     0.000 C 
ATOM     22 Cl   *** d   1      11.259  40.021   3.793  0.00  0.00     0.000 Cl
ENDBRANCH  19  21
ENDBRANCH  18  19
ENDBRANCH   2  18
BRANCH  10  23
ATOM     23  C   *** d   1      15.936  37.045   9.983  0.00  0.00     0.000 C 
ATOM     24  O   *** d   1      16.080  35.844  10.046  0.00  0.00     0.000 OA
ATOM     25  N   *** d   1      17.044  37.865   9.913  0.00  0.00     0.000 N 
ATOM     26  C   *** d   1      18.347  37.421  10.413  0.00  0.00     0.000 C 
ATOM     27  N   *** d   1      17.141  38.949   9.104  0.00  0.00     0.000 NA
ATOM     28  C   *** d   1      19.063  38.780  10.502  0.00  0.00     0.000 C 
ATOM     29  C   *** d   1      18.477  39.505   9.293  0.00  0.00     0.000 C 
ATOM     30  H   *** d   1      16.443  39.667   9.359  0.00  0.00     0.000 HD
BRANCH  26  31
ATOM     31  C   *** d   1      19.087  36.449   9.471  0.00  0.00     0.000 C 
ATOM     32  C   *** d   1      20.613  36.506   9.631  0.00  0.00     0.000 C 
ENDBRANCH  26  31
BRANCH  29  33
ATOM     33  O   *** d   1      18.375  40.892   9.527  0.00  0.00     0.000 OA
ATOM     34  H   *** d   1      18.759  41.066  10.389  0.00  0.00     0.000 HD
ENDBRANCH  29  33
ENDBRANCH  10  23
BRANCH   1  35
ATOM     35 Cl   *** d   1       9.228  42.811   8.302  0.00  0.00     0.000 Cl
ATOM     36  H   *** d   1       9.581  43.472   9.357  0.00  0.00     0.000 HD
ENDBRANCH   1  35
TORSDOF 8
ENDMDL
MODEL 7
REMARK VINA RESULT:      -7.9      3.219      7.855
REMARK  8 active torsions:
REMARK  status: ('A' for Active; 'I' for Inactive)
REMARK    1  A    between atoms: C_1  and  C_6 
REMARK    2  A    between atoms: C_1  and  C_2 
REMARK    3  A    between atoms: Cl_3  and  C_4 
REMARK    4  A    between atoms: C_5  and  C_6 
REMARK    5  A    between atoms: C_8  and  N_22 
REMARK    6  A    between atoms: C_14  and  C_25 
REMARK       I    between atoms: C_25  and  N_26 
REMARK    7  A    between atoms: C_27  and  C_33 
REMARK    8  A    between atoms: C_30  and  O_35 
ROOT
ATOM      1  C   *** d   1      15.772  39.373   8.492  0.00  0.00     0.000 C 
ATOM      2  C   *** d   1      14.559  39.881   7.724  0.00  0.00     0.000 C 
ATOM      3  C   *** d   1      15.528  39.482  10.005  0.00  0.00     0.000 C 
ATOM      4  C   *** d   1      14.260  39.803  10.435  0.00  0.00     0.000 C 
ATOM      5  C   *** d   1      13.547  40.621   9.614  0.00  0.00     0.000 C 
ATOM      6  O   *** d   1      14.105  41.005   8.421  0.00  0.00     0.000 OA
ATOM      7  C   *** d   1      12.264  40.967   9.912  0.00  0.00     0.000 A 
ATOM      8  C   *** d   1      11.512  41.668   9.038  0.00  0.00     0.000 A 
ATOM      9  C   *** d   1      10.237  42.005   9.292  0.00  0.00     0.000 A 
ATOM     10  C   *** d   1       9.632  41.660  10.443  0.00  0.00     0.000 A 
ATOM     11  C   *** d   1      10.382  41.007  11.351  0.00  0.00     0.000 A 
ATOM     12  C   *** d   1      11.659  40.688  11.084  0.00  0.00     0.000 A 
ATOM     13  F   *** d   1       9.919  40.712  12.557  0.00  0.00     0.000 F 
ATOM     14  O   *** d   1      16.414  39.209  10.792  0.00  0.00     0.000 OA
ENDROOT
BRANCH   4  15
ATOM     15  N   *** d   1      13.599  38.764  10.727  0.00  0.00     1.000 N 
ATOM     16  O   *** d   1      13.851  38.051  11.796  0.00  0.00     0.000 OA
ATOM     17  O   *** d   1      13.297  37.994   9.692  0.00  0.00    -1.000 OA
ENDBRANCH   4  15
BRANCH   2  18
ATOM     18  C   *** d   1      13.348  38.929   7.441  0.00  0.00     0.000 C 
BRANCH  18  19
ATOM     19  C   *** d   1      12.180  39.240   6.414  0.00  0.00     0.000 C 
ATOM     20 Cl   *** d   1      12.424  37.980   5.236  0.00  0.00     0.000 Cl
BRANCH  19  21
ATOM     21  C   *** d   1      10.694  39.171   6.859  0.00  0.00     0.000 C 
ATOM     22 Cl   *** d   1       9.708  37.842   6.219  0.00  0.00     0.000 Cl
ENDBRANCH  19  21
ENDBRANCH  18  19
ENDBRANCH   2  18
BRANCH  10  23
ATOM     23  C   *** d   1       8.325  41.997  10.658  0.00  0.00     0.000 C 
ATOM     24  O   *** d   1       8.002  42.750  11.549  0.00  0.00     0.000 OA
ATOM     25  N   *** d   1       7.382  41.568   9.747  0.00  0.00     0.000 N 
ATOM     26  C   *** d   1       5.955  41.557  10.083  0.00  0.00     0.000 C 
ATOM     27  N   *** d   1       7.600  41.463   8.413  0.00  0.00     0.000 NA
ATOM     28  C   *** d   1       5.437  40.632   8.968  0.00  0.00     0.000 C 
ATOM     29  C   *** d   1       6.346  41.028   7.807  0.00  0.00     0.000 C 
ATOM     30  H   *** d   1       8.329  40.760   8.210  0.00  0.00     0.000 HD
BRANCH  26  31
ATOM     31  C   *** d   1       5.283  42.945  10.029  0.00  0.00     0.000 C 
ATOM     32  C   *** d   1       4.151  43.021   8.995  0.00  0.00     0.000 C 
ENDBRANCH  26  31
BRANCH  29  33
ATOM     33  O   *** d   1       6.597  39.931   6.957  0.00  0.00     0.000 OA
ATOM     34  H   *** d   1       7.518  39.684   7.072  0.00  0.00     0.000 HD
ENDBRANCH  29  33
ENDBRANCH  10  23
BRANCH   1  35
ATOM     35 Cl   *** d   1      15.828  37.681   8.179  0.00  0.00     0.000 Cl
ATOM     36  H   *** d   1      15.871  36.827   9.151  0.00  0.00     0.000 HD
ENDBRANCH   1  35
TORSDOF 8
ENDMDL
MODEL 8
REMARK VINA RESULT:      -6.9      7.123     12.215
REMARK  8 active torsions:
REMARK  status: ('A' for Active; 'I' for Inactive)
REMARK    1  A    between atoms: C_1  and  C_6 
REMARK    2  A    between atoms: C_1  and  C_2 
REMARK    3  A    between atoms: Cl_3  and  C_4 
REMARK    4  A    between atoms: C_5  and  C_6 
REMARK    5  A    between atoms: C_8  and  N_22 
REMARK    6  A    between atoms: C_14  and  C_25 
REMARK       I    between atoms: C_25  and  N_26 
REMARK    7  A    between atoms: C_27  and  C_33 
REMARK    8  A    between atoms: C_30  and  O_35 
ROOT
ATOM      1  C   *** d   1      22.199  32.001  12.493  0.00  0.00     0.000 C 
ATOM      2  C   *** d   1      20.854  32.228  13.170  0.00  0.00     0.000 C 
ATOM      3  C   *** d   1      22.389  32.998  11.339  0.00  0.00     0.000 C 
ATOM      4  C   *** d   1      21.481  34.025  11.215  0.00  0.00     0.000 C 
ATOM      5  C   *** d   1      20.209  33.739  11.608  0.00  0.00     0.000 C 
ATOM      6  O   *** d   1      19.947  32.504  12.142  0.00  0.00     0.000 OA
ATOM      7  C   *** d   1      19.236  34.692  11.575  0.00  0.00     0.000 A 
ATOM      8  C   *** d   1      18.010  34.451  12.085  0.00  0.00     0.000 A 
ATOM      9  C   *** d   1      17.037  35.375  12.089  0.00  0.00     0.000 A 
ATOM     10  C   *** d   1      17.229  36.605  11.579  0.00  0.00     0.000 A 
ATOM     11  C   *** d   1      18.428  36.847  11.016  0.00  0.00     0.000 A 
ATOM     12  C   *** d   1      19.387  35.907  11.011  0.00  0.00     0.000 A 
ATOM     13  F   *** d   1      18.688  37.986  10.392  0.00  0.00     0.000 F 
ATOM     14  O   *** d   1      23.364  32.923  10.615  0.00  0.00     0.000 OA
ENDROOT
BRANCH   4  15
ATOM     15  N   *** d   1      21.902  35.080  11.772  0.00  0.00     1.000 N 
ATOM     16  O   *** d   1      22.545  36.011  11.113  0.00  0.00     0.000 OA
ATOM     17  O   *** d   1      22.419  34.897  12.978  0.00  0.00    -1.000 OA
ENDBRANCH   4  15
BRANCH   2  18
ATOM     18  C   *** d   1      20.707  33.313  14.290  0.00  0.00     0.000 C 
BRANCH  18  19
ATOM     19  C   *** d   1      19.773  33.170  15.564  0.00  0.00     0.000 C 
ATOM     20 Cl   *** d   1      18.810  34.616  15.437  0.00  0.00     0.000 Cl
BRANCH  19  21
ATOM     21  C   *** d   1      18.793  31.975  15.698  0.00  0.00     0.000 C 
ATOM     22 Cl   *** d   1      17.479  31.856  14.510  0.00  0.00     0.000 Cl
ENDBRANCH  19  21
ENDBRANCH  18  19
ENDBRANCH   2  18
BRANCH  10  23
ATOM     23  C   *** d   1      16.224  37.530  11.623  0.00  0.00     0.000 C 
ATOM     24  O   *** d   1      16.269  38.482  12.368  0.00  0.00     0.000 OA
ATOM     25  N   *** d   1      15.207  37.433  10.695  0.00  0.00     0.000 N 
ATOM     26  C   *** d   1      13.931  38.126  10.895  0.00  0.00     0.000 C 
ATOM     27  N   *** d   1      15.378  37.022   9.414  0.00  0.00     0.000 NA
ATOM     28  C   *** d   1      13.065  37.369   9.873  0.00  0.00     0.000 C 
ATOM     29  C   *** d   1      14.077  37.111   8.759  0.00  0.00     0.000 C 
ATOM     30  H   *** d   1      15.702  36.042   9.378  0.00  0.00     0.000 HD
BRANCH  26  31
ATOM     31  C   *** d   1      13.981  39.638  10.588  0.00  0.00     0.000 C 
ATOM     32  C   *** d   1      12.666  40.358  10.921  0.00  0.00     0.000 C 
ENDBRANCH  26  31
BRANCH  29  33
ATOM     33  O   *** d   1      13.808  35.897   8.094  0.00  0.00     0.000 OA
ATOM     34  H   *** d   1      14.618  35.625   7.656  0.00  0.00     0.000 HD
ENDBRANCH  29  33
ENDBRANCH  10  23
BRANCH   1  35
ATOM     35 Cl   *** d   1      23.377  32.457  13.664  0.00  0.00     0.000 Cl
ATOM     36  H   *** d   1      23.059  33.210  14.666  0.00  0.00     0.000 HD
ENDBRANCH   1  35
TORSDOF 8
ENDMDL
MODEL 9
REMARK VINA RESULT:      -6.7      5.370      8.793
REMARK  8 active torsions:
REMARK  status: ('A' for Active; 'I' for Inactive)
REMARK    1  A    between atoms: C_1  and  C_6 
REMARK    2  A    between atoms: C_1  and  C_2 
REMARK    3  A    between atoms: Cl_3  and  C_4 
REMARK    4  A    between atoms: C_5  and  C_6 
REMARK    5  A    between atoms: C_8  and  N_22 
REMARK    6  A    between atoms: C_14  and  C_25 
REMARK       I    between atoms: C_25  and  N_26 
REMARK    7  A    between atoms: C_27  and  C_33 
REMARK    8  A    between atoms: C_30  and  O_35 
ROOT
ATOM      1  C   *** d   1      13.909  38.280  10.855  0.00  0.00     0.000 C 
ATOM      2  C   *** d   1      14.003  37.528   9.535  0.00  0.00     0.000 C 
ATOM      3  C   *** d   1      15.275  38.295  11.558  0.00  0.00     0.000 C 
ATOM      4  C   *** d   1      16.370  37.845  10.855  0.00  0.00     0.000 C 
ATOM      5  C   *** d   1      16.127  36.853   9.955  0.00  0.00     0.000 C 
ATOM      6  O   *** d   1      14.835  36.429   9.775  0.00  0.00     0.000 OA
ATOM      7  C   *** d   1      17.124  36.362   9.168  0.00  0.00     0.000 A 
ATOM      8  C   *** d   1      16.862  35.473   8.187  0.00  0.00     0.000 A 
ATOM      9  C   *** d   1      17.818  34.988   7.379  0.00  0.00     0.000 A 
ATOM     10  C   *** d   1      19.104  35.362   7.505  0.00  0.00     0.000 A 
ATOM     11  C   *** d   1      19.396  36.205   8.513  0.00  0.00     0.000 A 
ATOM     12  C   *** d   1      18.427  36.673   9.318  0.00  0.00     0.000 A 
ATOM     13  F   *** d   1      20.642  36.555   8.792  0.00  0.00     0.000 F 
ATOM     14  O   *** d   1      15.390  38.772  12.671  0.00  0.00     0.000 OA
ENDROOT
BRANCH   4  15
ATOM     15  N   *** d   1      16.995  38.804  10.315  0.00  0.00     1.000 N 
ATOM     16  O   *** d   1      18.050  39.350  10.865  0.00  0.00     0.000 OA
ATOM     17  O   *** d   1      16.220  39.716   9.747  0.00  0.00    -1.000 OA
ENDBRANCH   4  15
BRANCH   2  18
ATOM     18  C   *** d   1      14.487  38.264   8.239  0.00  0.00     0.000 C 
BRANCH  18  19
ATOM     19  C   *** d   1      13.533  38.741   7.066  0.00  0.00     0.000 C 
ATOM     20 Cl   *** d   1      11.974  38.279   7.692  0.00  0.00     0.000 Cl
BRANCH  19  21
ATOM     21  C   *** d   1      13.445  40.241   6.677  0.00  0.00     0.000 C 
ATOM     22 Cl   *** d   1      14.862  41.257   7.005  0.00  0.00     0.000 Cl
ENDBRANCH  19  21
ENDBRANCH  18  19
ENDBRANCH   2  18
BRANCH  10  23
ATOM     23  C   *** d   1      20.048  34.867   6.649  0.00  0.00     0.000 C 
ATOM     24  O   *** d   1      20.103  33.689   6.376  0.00  0.00     0.000 OA
ATOM     25  N   *** d   1      20.863  35.762   5.987  0.00  0.00     0.000 N 
ATOM     26  C   *** d   1      22.114  35.326   5.360  0.00  0.00     0.000 C 
ATOM     27  N   *** d   1      20.461  36.981   5.549  0.00  0.00     0.000 NA
ATOM     28  C   *** d   1      22.798  36.693   5.177  0.00  0.00     0.000 C 
ATOM     29  C   *** d   1      21.599  37.585   4.862  0.00  0.00     0.000 C 
ATOM     30  H   *** d   1      20.189  37.588   6.338  0.00  0.00     0.000 HD
BRANCH  26  31
ATOM     31  C   *** d   1      21.925  34.599   4.012  0.00  0.00     0.000 C 
ATOM     32  C   *** d   1      22.699  33.275   3.935  0.00  0.00     0.000 C 
ENDBRANCH  26  31
BRANCH  29  33
ATOM     33  O   *** d   1      21.793  38.894   5.349  0.00  0.00     0.000 OA
ATOM     34  H   *** d   1      20.926  39.287   5.469  0.00  0.00     0.000 HD
ENDBRANCH  29  33
ENDBRANCH  10  23
BRANCH   1  35
ATOM     35 Cl   *** d   1      13.622  39.921  10.421  0.00  0.00     0.000 Cl
ATOM     36  H   *** d   1      13.130  40.758  11.277  0.00  0.00     0.000 HD
ENDBRANCH   1  35
TORSDOF 8
ENDMDL
MODEL 10
REMARK VINA RESULT:      -6.7      5.149      7.628
REMARK  8 active torsions:
REMARK  status: ('A' for Active; 'I' for Inactive)
REMARK    1  A    between atoms: C_1  and  C_6 
REMARK    2  A    between atoms: C_1  and  C_2 
REMARK    3  A    between atoms: Cl_3  and  C_4 
REMARK    4  A    between atoms: C_5  and  C_6 
REMARK    5  A    between atoms: C_8  and  N_22 
REMARK    6  A    between atoms: C_14  and  C_25 
REMARK       I    between atoms: C_25  and  N_26 
REMARK    7  A    between atoms: C_27  and  C_33 
REMARK    8  A    between atoms: C_30  and  O_35 
ROOT
ATOM      1  C   *** d   1      12.570  39.356  10.324  0.00  0.00     0.000 C 
ATOM      2  C   *** d   1      12.430  38.707   8.954  0.00  0.00     0.000 C 
ATOM      3  C   *** d   1      13.881  38.914  10.991  0.00  0.00     0.000 C 
ATOM      4  C   *** d   1      14.789  38.209  10.232  0.00  0.00     0.000 C 
ATOM      5  C   *** d   1      14.257  37.402   9.274  0.00  0.00     0.000 C 
ATOM      6  O   *** d   1      12.897  37.396   9.098  0.00  0.00     0.000 OA
ATOM      7  C   *** d   1      15.060  36.695   8.431  0.00  0.00     0.000 A 
ATOM      8  C   *** d   1      14.540  35.998   7.398  0.00  0.00     0.000 A 
ATOM      9  C   *** d   1      15.304  35.309   6.536  0.00  0.00     0.000 A 
ATOM     10  C   *** d   1      16.644  35.273   6.654  0.00  0.00     0.000 A 
ATOM     11  C   *** d   1      17.178  35.917   7.710  0.00  0.00     0.000 A 
ATOM     12  C   *** d   1      16.397  36.592   8.568  0.00  0.00     0.000 A 
ATOM     13  F   *** d   1      18.473  35.860   7.980  0.00  0.00     0.000 F 
ATOM     14  O   *** d   1      14.137  39.253  12.131  0.00  0.00     0.000 OA
ENDROOT
BRANCH   4  15
ATOM     15  N   *** d   1      15.669  38.976   9.743  0.00  0.00     1.000 N 
ATOM     16  O   *** d   1      16.869  39.082  10.257  0.00  0.00     0.000 OA
ATOM     17  O   *** d   1      15.212  40.151   9.335  0.00  0.00    -1.000 OA
ENDBRANCH   4  15
BRANCH   2  18
ATOM     18  C   *** d   1      13.107  39.357   7.699  0.00  0.00     0.000 C 
BRANCH  18  19
ATOM     19  C   *** d   1      12.633  39.130   6.202  0.00  0.00     0.000 C 
ATOM     20 Cl   *** d   1      11.169  38.218   6.448  0.00  0.00     0.000 Cl
BRANCH  19  21
ATOM     21  C   *** d   1      12.276  40.336   5.293  0.00  0.00     0.000 C 
ATOM     22 Cl   *** d   1      11.411  39.994   3.781  0.00  0.00     0.000 Cl
ENDBRANCH  19  21
ENDBRANCH  18  19
ENDBRANCH   2  18
BRANCH  10  23
ATOM     23  C   *** d   1      17.394  34.583   5.743  0.00  0.00     0.000 C 
ATOM     24  O   *** d   1      18.239  35.130   5.071  0.00  0.00     0.000 OA
ATOM     25  N   *** d   1      17.265  33.210   5.698  0.00  0.00     0.000 N 
ATOM     26  C   *** d   1      17.727  32.444   4.538  0.00  0.00     0.000 C 
ATOM     27  N   *** d   1      17.052  32.427   6.785  0.00  0.00     0.000 NA
ATOM     28  C   *** d   1      16.985  31.120   4.793  0.00  0.00     0.000 C 
ATOM     29  C   *** d   1      17.027  31.044   6.317  0.00  0.00     0.000 C 
ATOM     30  H   *** d   1      16.145  32.644   7.228  0.00  0.00     0.000 HD
BRANCH  26  31
ATOM     31  C   *** d   1      19.256  32.238   4.486  0.00  0.00     0.000 C 
ATOM     32  C   *** d   1      19.672  31.080   3.567  0.00  0.00     0.000 C 
ENDBRANCH  26  31
BRANCH  29  33
ATOM     33  O   *** d   1      15.882  30.401   6.830  0.00  0.00     0.000 OA
ATOM     34  H   *** d   1      16.125  29.493   7.022  0.00  0.00     0.000 HD
ENDBRANCH  29  33
ENDBRANCH  10  23
BRANCH   1  35
ATOM     35 Cl   *** d   1      12.784  41.035  10.009  0.00  0.00     0.000 Cl
ATOM     36  H   *** d   1      11.890  41.897  10.372  0.00  0.00     0.000 HD
ENDBRANCH   1  35
TORSDOF 8
ENDMDL
